cenario_2/279015/run_cargas_agregadas.dss
New Object = Circuit.279015_Barra_Slack
~ basekv = 34.5 pu = 1.029 angle = 0
New line.279015279015 phases = 3 bus1 = SourceBus bus2 = 64039585860867381MT.1.2.3 switch = y
New linecode.16512329H-1_linecode_media nphases=3 BaseFreq=60
~ r1=0.000975
~ x1=0.000347
~ c1=0
~ Normamps=175.0
~ Emergamps=245.0
New linecode.16512329H-3_linecode_media nphases=3 BaseFreq=60
~ r1=0.000975
~ x1=0.000347
~ c1=0
~ Normamps=175.0
~ Emergamps=245.0
New linecode.16512329H-3P_linecode_media nphases=3 BaseFreq=60
~ r1=0.000975
~ x1=0.000347
~ c1=0
~ Normamps=175.0
~ Emergamps=245.0
New linecode.16512384H-3P_linecode_media nphases=3 BaseFreq=60
~ r1=0.000306
~ x1=0.000289
~ c1=0
~ Normamps=350.0
~ Emergamps=490.0
New line.70318794_Chave_seccionadora_media_tensao phases = 3 bus1 = 279116422.1.2.3 bus2 = 27970318794.1.2.3 switch = F
New line.70318796_Chave_seccionadora_media_tensao phases = 3 bus1 = 279116422.1.2.3 bus2 = 27970318796.1.2.3 switch = A
New line.70318795_Chave_seccionadora_media_tensao phases = 3 bus1 = 27970318793.1.2.3 bus2 = 64039585860867381MT.1.2.3 switch = F
New line.70318793_Chave_seccionadora_media_tensao phases = 3 bus1 = 27970318794.1.2.3 bus2 = 27970318793.1.2.3 switch = F
New line.70455982_Chave_seccionadora_media_tensao phases = 3 bus1 = 64040695860866655MT.1.2.3 bus2 = 64040754860866515MT.1.2.3 switch = F
New line.70455989_Chave_seccionadora_media_tensao phases = 3 bus1 = 64575355861158726MT.1.2.3 bus2 = 64575503861158764MT.1.2.3 switch = F
New line.70455996_Chave_seccionadora_media_tensao phases = 3 bus1 = 65337136861305750MT.1.2.3 bus2 = 65337285861305782MT.1.2.3 switch = F
New line.34698893CT_Chave_seccionadora_media_tensao phases = 3 bus1 = 65695743861162888MT.1.2.3 bus2 = 65695743861162888ET.1.2.3 switch = F
New line.71426406_Chave_seccionadora_media_tensao phases = 3 bus1 = 65704880861203037MT.1.2.3 bus2 = 65705032861203022MT.1.2.3 switch = F
New line.64732551_Chave_seccionadora_media_tensao phases = 3 bus1 = 65723937861386514MT.1.2.3 bus2 = 65723943861386664MT.1.2.3 switch = F
New line.34778765CT_Chave_seccionadora_media_tensao phases = 3 bus1 = 65860678861453850MT.1.2.3 bus2 = 65860678861453850ET.1.2.3 switch = F
New line.64686543_Chave_seccionadora_media_tensao phases = 3 bus1 = 66073404861461383MT.1.2.3 bus2 = 66073342861461520MT.1.2.3 switch = F
New line.64686544_Chave_seccionadora_media_tensao phases = 3 bus1 = 66303636861513024MT.1.2.3 bus2 = 66303695861513162MT.1.2.3 switch = F
New line.64732549_Chave_seccionadora_media_tensao phases = 3 bus1 = 66401180861535732MT.1.2.3 bus2 = 66401303861535647MT.1.2.3 switch = F
New line.34654955CT_Chave_seccionadora_media_tensao phases = 3 bus1 = 66485413861571066MT.1.2.3 bus2 = 66485413861571066ET.1.2.3 switch = F
New line.34793070CT_Chave_seccionadora_media_tensao phases = 3 bus1 = 66486236861606587MT.1.2.3 bus2 = 66486236861606587ET.1.2.3 switch = F
New line.64689253_Chave_seccionadora_media_tensao phases = 3 bus1 = 66490298861550307MT.1.2.3 bus2 = 66490298861550457MT.1.2.3 switch = F
New line.34665333CT_Chave_seccionadora_media_tensao phases = 3 bus1 = 66516667861618246MT.1.2.3 bus2 = 66516667861618246ET.1.2.3 switch = F
New line.64696622_Chave_seccionadora_media_tensao phases = 3 bus1 = 66524293862030623MT.1.2.3 bus2 = 66524264862030770MT.1.2.3 switch = F
New line.34563120CT_Chave_seccionadora_media_tensao phases = 3 bus1 = 66546496861613570MT.1.2.3 bus2 = 66546496861613570ET.1.2.3 switch = F
New line.34614757CT_Chave_seccionadora_media_tensao phases = 3 bus1 = 66566025861620290MT.1.2.3 bus2 = 66566025861620290ET.1.2.3 switch = F
New line.64668022_Chave_seccionadora_media_tensao phases = 3 bus1 = 66567034861613887MT.1.2.3 bus2 = 66567011861614035MT.1.2.3 switch = F
New line.71542456CT_Chave_seccionadora_media_tensao phases = 3 bus1 = 66570640861815499MT.1.2.3 bus2 = 66570640861815499ET.1.2.3 switch = F
New line.59911530_Chave_seccionadora_media_tensao phases = 3 bus1 = 66615842862008453MT.1.2.3 bus2 = 66615987862008414MT.1.2.3 switch = F
New line.64666758_Chave_seccionadora_media_tensao phases = 3 bus1 = 66672880861997427MT.1.2.3 bus2 = 66672904861997575MT.1.2.3 switch = F
New line.64695236_Chave_seccionadora_media_tensao phases = 3 bus1 = 66846057862060678MT.1.2.3 bus2 = 66846050862060528MT.1.2.3 switch = F
New line.64666765_Chave_seccionadora_media_tensao phases = 3 bus1 = 67055399861588289MT.1.2.3 bus2 = 67055249861588281MT.1.2.3 switch = F
New line.34682866CT_Chave_seccionadora_media_tensao phases = 3 bus1 = 67115600861473048MT.1.2.3 bus2 = 67115600861473048ET.1.2.3 switch = F
New line.34769574CT_Chave_seccionadora_media_tensao phases = 3 bus1 = 67151513862462438MT.1.2.3 bus2 = 67151513862462438ET.1.2.3 switch = F
New line.71486703_Chave_seccionadora_media_tensao phases = 3 bus1 = 67158079862397633MT.1.2.3 bus2 = 67158192862397736MT.1.2.3 switch = F
New line.64729472_Chave_seccionadora_media_tensao phases = 3 bus1 = 67164653862274099MT.1.2.3 bus2 = 67164802862274082MT.1.2.3 switch = F
New line.64677560_Chave_seccionadora_media_tensao phases = 3 bus1 = 67164865862292019MT.1.2.3 bus2 = 67164717862291996MT.1.2.3 switch = F
New line.59911194_Chave_seccionadora_media_tensao phases = 3 bus1 = 67165611861405795MT.1.2.3 bus2 = 67165754861405749MT.1.2.3 switch = F
New line.71486710_Chave_seccionadora_media_tensao phases = 3 bus1 = 67257066862454786MT.1.2.3 bus2 = 67257074862454938MT.1.2.3 switch = F
New line.34736295CT_Chave_seccionadora_media_tensao phases = 3 bus1 = 67346321861675245MT.1.2.3 bus2 = 67346321861675245ET.1.2.3 switch = F
New line.34755120CT_Chave_seccionadora_media_tensao phases = 3 bus1 = 67413678861279319MT.1.2.3 bus2 = 67413678861279319ET.1.2.3 switch = F
New line.71551707_Chave_seccionadora_media_tensao phases = 3 bus1 = 68231370862226774MT.1.2.3 bus2 = 68231515862226727MT.1.2.3 switch = F
New Load.nome_20723ce3d9304b5d4bef12478fe6144b52dad0ff5c9c184df2a9fc9a97e7c133_curva_diaria_MT-Tipo2_du_0.8_0.8_0.8_0.8_0.8_0.8_0.8_0.8_0.7_0.7_0.7_0.7_0.7_0.7_0.7_0.7_0.7_0.7_0.7_0.7_0.7_0.7_0.7_0.7_0.7_0.7_0.6_0.6_0.7_0.7_0.7_0.7_0.7_0.7_0.7_0.8_0.8_0.8_0.8_0.9_0.9_0.9_0.9_0.9_0.9_1.0_1.0_1.0_1.0_1.0_1.0_1.0_1.0_1.0_1.0_1.0_1.0_1.0_1.0_1.0_1.0_1.0_1.0_1.0_1.0_0.9_0.9_0.9_0.9_0.9_0.9_0.9_0.9_0.9_0.9_0.9_0.9_0.9_0.9_0.9_0.8_0.9_0.8_0.8_0.8_0.8_0.8_0.8_0.8_0.8_0.8_0.7_0.7_0.7_0.7_0.7_sa_0.6_0.6_0.6_0.6_0.6_0.6_0.6_0.6_0.6_0.6_0.6_0.6_0.5_0.6_0.5_0.5_0.5_0.5_0.5_0.5_0.5_0.5_0.5_0.5_0.5_0.5_0.5_0.6_0.6_0.7_0.7_0.7_0.7_0.7_0.8_0.8_0.9_0.8_0.8_0.9_0.9_0.9_1.0_1.0_1.0_0.9_0.9_1.0_1.0_0.9_0.9_0.9_0.9_1.0_1.0_1.0_0.9_1.0_1.0_1.0_1.0_1.0_1.0_1.0_1.0_1.0_1.0_1.0_1.0_1.0_0.9_0.9_0.9_0.9_0.9_0.9_0.9_0.9_0.8_0.8_0.8_0.8_0.8_0.8_0.8_0.8_0.8_0.8_0.8_0.8_0.7_0.7_0.7_0.6_0.6_0.6_do_0.5_0.5_0.5_0.5_0.5_0.5_0.5_0.5_0.5_0.5_0.5_0.5_0.5_0.5_0.5_0.5_0.4_0.5_0.5_0.5_0.5_0.5_0.5_0.5_0.5_0.5_0.5_0.5_0.6_0.6_0.6_0.7_0.7_0.7_0.8_0.8_0.8_0.8_0.9_0.9_0.9_0.9_1.0_1.0_1.0_1.0_1.0_0.9_0.9_0.9_0.9_0.9_0.9_1.0_1.0_1.0_1.0_1.0_1.0_1.0_1.0_0.9_0.9_0.9_0.9_0.9_0.9_0.9_0.9_0.8_0.7_0.6_0.6_0.6_0.6_0.5_0.5_0.5_0.5_0.5_0.5_0.5_0.6_0.6_0.6_0.6_0.6_0.6_0.6_0.6_0.6_0.6_0.6_0.6_0.5_0.5_curva_anual_0.0_0.0_0.0_0.0_0.0_0.0_0.0_0.0_9.21_17.61_50.48_31.52_carga_media Bus1=66516667861618246MT.1.2.3 Phases=3
~ Conn=wye Model=1 Kv=34.5 Kw=1 pf=0.92
New Load.nome_30c4f3071e3ecf76502baea4f0d1634f5fd3718a92e2b3efcde051b22716c631_curva_diaria_MT-Tipo1_du_1.0_1.0_1.0_1.0_1.0_1.0_1.0_1.0_1.0_1.0_1.0_1.0_1.0_1.0_1.0_1.0_1.0_1.0_1.0_1.0_1.0_1.0_1.0_1.0_0.9_0.9_0.9_0.9_0.9_0.9_0.9_0.9_0.9_0.9_0.9_0.9_0.9_0.9_0.9_0.9_0.9_0.9_0.9_0.9_0.9_0.9_0.9_0.9_0.9_0.9_0.9_0.9_0.9_0.9_0.9_0.9_0.9_0.9_0.9_0.9_0.9_0.9_0.9_0.9_0.9_0.9_0.9_0.9_0.9_0.9_0.9_0.9_0.9_0.9_0.9_0.9_0.9_0.9_0.9_0.9_0.9_0.9_0.9_0.9_0.9_0.9_0.9_0.9_0.9_0.9_0.9_0.9_0.9_0.9_0.9_0.9_sa_1.0_1.0_1.0_1.0_1.0_1.0_1.0_1.0_1.0_1.0_1.0_1.0_1.0_1.0_0.9_1.0_1.0_1.0_0.9_0.9_1.0_0.9_0.9_1.0_0.9_1.0_1.0_1.0_1.0_1.0_1.0_1.0_1.0_1.0_1.0_1.0_1.0_1.0_1.0_1.0_1.0_1.0_1.0_1.0_1.0_1.0_1.0_1.0_1.0_1.0_1.0_1.0_1.0_1.0_1.0_1.0_1.0_1.0_1.0_1.0_1.0_1.0_1.0_1.0_1.0_0.9_1.0_1.0_1.0_1.0_1.0_1.0_1.0_1.0_0.9_1.0_1.0_1.0_1.0_1.0_1.0_1.0_1.0_1.0_1.0_1.0_1.0_1.0_1.0_1.0_1.0_1.0_1.0_1.0_1.0_1.0_do_0.9_1.0_1.0_0.9_0.9_0.9_0.9_1.0_1.0_1.0_1.0_1.0_0.9_0.9_0.9_0.9_0.9_0.9_0.9_0.9_0.9_0.9_0.9_0.9_0.9_0.9_0.9_0.9_0.9_0.9_0.9_0.9_1.0_1.0_1.0_1.0_1.0_1.0_1.0_1.0_1.0_1.0_1.0_1.0_1.0_1.0_1.0_1.0_1.0_1.0_1.0_1.0_1.0_1.0_1.0_1.0_1.0_1.0_1.0_1.0_1.0_1.0_1.0_1.0_1.0_1.0_1.0_1.0_1.0_0.9_0.9_0.9_0.9_0.9_1.0_0.9_0.9_0.9_0.9_0.9_0.9_0.9_1.0_1.0_1.0_1.0_1.0_1.0_1.0_1.0_1.0_1.0_0.9_0.9_0.9_0.9_curva_anual_0.0_0.0_0.0_0.0_0.0_0.0_0.0_0.0_3.87_9.4_7.67_6.62_carga_media Bus1=65695743861162888ET.1.2.3 Phases=3
~ Conn=wye Model=1 Kv=34.5 Kw=1 pf=0.92
New Load.nome_3150aba61c62dcf6f0e16c413dc88a7ac4d200e663de7e8cad8b7a633940b9ee_curva_diaria_MT-Tipo2_du_0.8_0.8_0.8_0.8_0.8_0.8_0.8_0.8_0.7_0.7_0.7_0.7_0.7_0.7_0.7_0.7_0.7_0.7_0.7_0.7_0.7_0.7_0.7_0.7_0.7_0.7_0.6_0.6_0.7_0.7_0.7_0.7_0.7_0.7_0.7_0.8_0.8_0.8_0.8_0.9_0.9_0.9_0.9_0.9_0.9_1.0_1.0_1.0_1.0_1.0_1.0_1.0_1.0_1.0_1.0_1.0_1.0_1.0_1.0_1.0_1.0_1.0_1.0_1.0_1.0_0.9_0.9_0.9_0.9_0.9_0.9_0.9_0.9_0.9_0.9_0.9_0.9_0.9_0.9_0.9_0.8_0.9_0.8_0.8_0.8_0.8_0.8_0.8_0.8_0.8_0.8_0.7_0.7_0.7_0.7_0.7_sa_0.6_0.6_0.6_0.6_0.6_0.6_0.6_0.6_0.6_0.6_0.6_0.6_0.5_0.6_0.5_0.5_0.5_0.5_0.5_0.5_0.5_0.5_0.5_0.5_0.5_0.5_0.5_0.6_0.6_0.7_0.7_0.7_0.7_0.7_0.8_0.8_0.9_0.8_0.8_0.9_0.9_0.9_1.0_1.0_1.0_0.9_0.9_1.0_1.0_0.9_0.9_0.9_0.9_1.0_1.0_1.0_0.9_1.0_1.0_1.0_1.0_1.0_1.0_1.0_1.0_1.0_1.0_1.0_1.0_1.0_0.9_0.9_0.9_0.9_0.9_0.9_0.9_0.9_0.8_0.8_0.8_0.8_0.8_0.8_0.8_0.8_0.8_0.8_0.8_0.8_0.7_0.7_0.7_0.6_0.6_0.6_do_0.5_0.5_0.5_0.5_0.5_0.5_0.5_0.5_0.5_0.5_0.5_0.5_0.5_0.5_0.5_0.5_0.4_0.5_0.5_0.5_0.5_0.5_0.5_0.5_0.5_0.5_0.5_0.5_0.6_0.6_0.6_0.7_0.7_0.7_0.8_0.8_0.8_0.8_0.9_0.9_0.9_0.9_1.0_1.0_1.0_1.0_1.0_0.9_0.9_0.9_0.9_0.9_0.9_1.0_1.0_1.0_1.0_1.0_1.0_1.0_1.0_0.9_0.9_0.9_0.9_0.9_0.9_0.9_0.9_0.8_0.7_0.6_0.6_0.6_0.6_0.5_0.5_0.5_0.5_0.5_0.5_0.5_0.6_0.6_0.6_0.6_0.6_0.6_0.6_0.6_0.6_0.6_0.6_0.6_0.5_0.5_curva_anual_0.0_0.0_0.0_0.0_0.0_0.0_0.0_0.0_8.31_14.96_7.41_2.32_carga_media Bus1=65860678861453850MT.1.2.3 Phases=3
~ Conn=wye Model=1 Kv=34.5 Kw=1 pf=0.92
New Load.nome_331ee439816310ad3f817fdf3c7bcd8c48699bdcc34d59190b40cfb3a0aa7b5a_curva_diaria_MT-Tipo2_du_0.8_0.8_0.8_0.8_0.8_0.8_0.8_0.8_0.7_0.7_0.7_0.7_0.7_0.7_0.7_0.7_0.7_0.7_0.7_0.7_0.7_0.7_0.7_0.7_0.7_0.7_0.6_0.6_0.7_0.7_0.7_0.7_0.7_0.7_0.7_0.8_0.8_0.8_0.8_0.9_0.9_0.9_0.9_0.9_0.9_1.0_1.0_1.0_1.0_1.0_1.0_1.0_1.0_1.0_1.0_1.0_1.0_1.0_1.0_1.0_1.0_1.0_1.0_1.0_1.0_0.9_0.9_0.9_0.9_0.9_0.9_0.9_0.9_0.9_0.9_0.9_0.9_0.9_0.9_0.9_0.8_0.9_0.8_0.8_0.8_0.8_0.8_0.8_0.8_0.8_0.8_0.7_0.7_0.7_0.7_0.7_sa_0.6_0.6_0.6_0.6_0.6_0.6_0.6_0.6_0.6_0.6_0.6_0.6_0.5_0.6_0.5_0.5_0.5_0.5_0.5_0.5_0.5_0.5_0.5_0.5_0.5_0.5_0.5_0.6_0.6_0.7_0.7_0.7_0.7_0.7_0.8_0.8_0.9_0.8_0.8_0.9_0.9_0.9_1.0_1.0_1.0_0.9_0.9_1.0_1.0_0.9_0.9_0.9_0.9_1.0_1.0_1.0_0.9_1.0_1.0_1.0_1.0_1.0_1.0_1.0_1.0_1.0_1.0_1.0_1.0_1.0_0.9_0.9_0.9_0.9_0.9_0.9_0.9_0.9_0.8_0.8_0.8_0.8_0.8_0.8_0.8_0.8_0.8_0.8_0.8_0.8_0.7_0.7_0.7_0.6_0.6_0.6_do_0.5_0.5_0.5_0.5_0.5_0.5_0.5_0.5_0.5_0.5_0.5_0.5_0.5_0.5_0.5_0.5_0.4_0.5_0.5_0.5_0.5_0.5_0.5_0.5_0.5_0.5_0.5_0.5_0.6_0.6_0.6_0.7_0.7_0.7_0.8_0.8_0.8_0.8_0.9_0.9_0.9_0.9_1.0_1.0_1.0_1.0_1.0_0.9_0.9_0.9_0.9_0.9_0.9_1.0_1.0_1.0_1.0_1.0_1.0_1.0_1.0_0.9_0.9_0.9_0.9_0.9_0.9_0.9_0.9_0.8_0.7_0.6_0.6_0.6_0.6_0.5_0.5_0.5_0.5_0.5_0.5_0.5_0.6_0.6_0.6_0.6_0.6_0.6_0.6_0.6_0.6_0.6_0.6_0.6_0.5_0.5_curva_anual_0.0_0.0_0.0_0.0_0.0_0.0_0.0_0.0_30.25_9.07_33.69_30.91_carga_media Bus1=67173492862264202MT.1.2.3 Phases=3
~ Conn=wye Model=1 Kv=34.5 Kw=1 pf=0.92
New Load.nome_3940b8329c85313a0f3a2ed8ff190a8da5ad0685088f6a6c69e01e6e2059a974_curva_diaria_MT-Tipo1_du_1.0_1.0_1.0_1.0_1.0_1.0_1.0_1.0_1.0_1.0_1.0_1.0_1.0_1.0_1.0_1.0_1.0_1.0_1.0_1.0_1.0_1.0_1.0_1.0_0.9_0.9_0.9_0.9_0.9_0.9_0.9_0.9_0.9_0.9_0.9_0.9_0.9_0.9_0.9_0.9_0.9_0.9_0.9_0.9_0.9_0.9_0.9_0.9_0.9_0.9_0.9_0.9_0.9_0.9_0.9_0.9_0.9_0.9_0.9_0.9_0.9_0.9_0.9_0.9_0.9_0.9_0.9_0.9_0.9_0.9_0.9_0.9_0.9_0.9_0.9_0.9_0.9_0.9_0.9_0.9_0.9_0.9_0.9_0.9_0.9_0.9_0.9_0.9_0.9_0.9_0.9_0.9_0.9_0.9_0.9_0.9_sa_1.0_1.0_1.0_1.0_1.0_1.0_1.0_1.0_1.0_1.0_1.0_1.0_1.0_1.0_0.9_1.0_1.0_1.0_0.9_0.9_1.0_0.9_0.9_1.0_0.9_1.0_1.0_1.0_1.0_1.0_1.0_1.0_1.0_1.0_1.0_1.0_1.0_1.0_1.0_1.0_1.0_1.0_1.0_1.0_1.0_1.0_1.0_1.0_1.0_1.0_1.0_1.0_1.0_1.0_1.0_1.0_1.0_1.0_1.0_1.0_1.0_1.0_1.0_1.0_1.0_0.9_1.0_1.0_1.0_1.0_1.0_1.0_1.0_1.0_0.9_1.0_1.0_1.0_1.0_1.0_1.0_1.0_1.0_1.0_1.0_1.0_1.0_1.0_1.0_1.0_1.0_1.0_1.0_1.0_1.0_1.0_do_0.9_1.0_1.0_0.9_0.9_0.9_0.9_1.0_1.0_1.0_1.0_1.0_0.9_0.9_0.9_0.9_0.9_0.9_0.9_0.9_0.9_0.9_0.9_0.9_0.9_0.9_0.9_0.9_0.9_0.9_0.9_0.9_1.0_1.0_1.0_1.0_1.0_1.0_1.0_1.0_1.0_1.0_1.0_1.0_1.0_1.0_1.0_1.0_1.0_1.0_1.0_1.0_1.0_1.0_1.0_1.0_1.0_1.0_1.0_1.0_1.0_1.0_1.0_1.0_1.0_1.0_1.0_1.0_1.0_0.9_0.9_0.9_0.9_0.9_1.0_0.9_0.9_0.9_0.9_0.9_0.9_0.9_1.0_1.0_1.0_1.0_1.0_1.0_1.0_1.0_1.0_1.0_0.9_0.9_0.9_0.9_curva_anual_0.0_0.0_0.0_0.0_0.0_0.0_0.0_0.0_48.24_131.24_131.27_181.15_carga_media Bus1=66685188861982897MT.1.2.3 Phases=3
~ Conn=wye Model=1 Kv=34.5 Kw=1 pf=0.92
New Load.nome_5aea3d3a5962c9124eded4f6d2fc04fc7c8b22abe58a73d6981661a9e9f63d6c_curva_diaria_MT-Tipo10_du_0.8_0.8_0.8_0.8_0.8_0.8_0.8_0.8_0.8_0.8_0.8_0.8_0.8_0.8_0.8_0.8_0.8_0.8_0.8_0.8_0.8_0.8_0.8_0.8_0.8_0.8_0.8_0.8_0.8_0.9_0.8_0.9_0.9_0.9_0.9_0.9_0.9_0.9_0.9_0.9_0.9_0.8_0.9_0.9_0.9_0.9_0.9_0.9_0.9_0.9_0.9_0.9_0.9_0.9_0.9_0.9_0.9_0.9_0.9_0.9_0.9_1.0_0.9_1.0_1.0_0.9_0.9_0.9_1.0_1.0_1.0_1.0_1.0_0.9_0.9_0.9_0.9_0.9_0.9_0.9_0.9_0.9_0.9_0.9_0.9_0.9_0.9_0.8_0.8_0.8_0.8_0.8_0.8_0.8_0.8_0.8_sa_0.8_0.7_0.8_0.8_0.8_0.8_0.8_0.7_0.7_0.7_0.7_0.7_0.7_0.7_0.7_0.7_0.8_0.7_0.8_0.8_0.8_0.8_0.8_0.9_0.8_0.7_0.8_0.8_0.8_0.8_0.8_0.8_0.8_0.8_0.8_0.8_0.8_0.8_0.8_0.8_0.8_0.8_0.8_0.9_0.9_0.9_0.9_0.8_0.8_0.8_0.8_0.8_0.8_0.8_0.8_0.8_0.9_1.0_1.0_1.0_1.0_1.0_0.9_0.9_1.0_1.0_1.0_0.9_0.9_1.0_1.0_1.0_1.0_1.0_1.0_1.0_1.0_0.9_0.8_0.8_0.8_0.9_0.9_0.9_0.9_0.9_0.9_0.9_0.9_0.8_0.8_0.9_0.8_0.7_0.7_0.7_do_0.7_0.7_0.7_0.7_0.7_0.7_0.8_0.8_0.8_0.8_0.8_0.8_0.8_0.8_0.8_0.8_0.8_0.7_0.7_0.7_0.7_0.7_0.8_0.7_0.7_0.8_0.8_0.8_0.8_0.8_0.8_0.8_0.8_0.8_0.8_0.8_0.8_0.8_0.9_0.9_0.8_0.9_0.9_0.9_0.9_0.9_0.9_0.9_0.9_0.8_0.9_0.9_0.9_0.9_0.9_0.9_0.9_0.9_0.8_0.9_1.0_0.9_1.0_1.0_1.0_1.0_1.0_1.0_1.0_1.0_1.0_1.0_1.0_0.9_1.0_1.0_1.0_0.9_0.8_0.9_0.9_1.0_1.0_0.9_0.9_0.9_0.9_0.9_0.9_0.9_0.9_0.9_0.9_0.8_0.8_0.8_curva_anual_0.0_0.0_0.0_0.0_0.0_0.0_0.0_0.0_372.47_1163.63_1042.2_794.63_carga_media Bus1=66566025861620290MT.1.2.3 Phases=3
~ Conn=wye Model=1 Kv=34.5 Kw=1 pf=0.92
New linecode.16512329H-1_linecode_media nphases=3 BaseFreq=60
~ r1=0.000975
~ x1=0.000347
~ c1=0
~ Normamps=175.0
~ Emergamps=245.0
New linecode.16512329H-3_linecode_media nphases=3 BaseFreq=60
~ r1=0.000975
~ x1=0.000347
~ c1=0
~ Normamps=175.0
~ Emergamps=245.0
New linecode.16512329H-3P_linecode_media nphases=3 BaseFreq=60
~ r1=0.000975
~ x1=0.000347
~ c1=0
~ Normamps=175.0
~ Emergamps=245.0
New linecode.16512384H-3P_linecode_media nphases=3 BaseFreq=60
~ r1=0.000306
~ x1=0.000289
~ c1=0
~ Normamps=350.0
~ Emergamps=490.0
New Line.13477584_linha_media Phases = 3 Bus1 = 67084033862136208MT.1.2.3 Bus2 = 67088960862139656MT.1.2.3 Linecode = 16512329H-3_linecode_media Length = 60.137 units = m
New Line.13477583_linha_media Phases = 3 Bus1 = 66672904861997575MT.1.2.3 Bus2 = 66674397862006760MT.1.2.3 Linecode = 16512329H-3_linecode_media Length = 94.555 units = m
New Line.13477585_linha_media Phases = 3 Bus1 = 67088960862139656MT.1.2.3 Bus2 = 67095819862144829MT.1.2.3 Linecode = 16512329H-3_linecode_media Length = 85.91 units = m
New Line.13477582_linha_media Phases = 3 Bus1 = 66672121861993657MT.1.2.3 Bus2 = 66672880861997427MT.1.2.3 Linecode = 16512329H-3_linecode_media Length = 36.734 units = m
New Line.71426397_linha_media Phases = 3 Bus1 = 65705032861203022MT.1.2.3 Bus2 = 65707153861211831MT.1.2.3 Linecode = 16512329H-3P_linecode_media Length = 90.607 units = m
New Line.13646732_linha_media Phases = 3 Bus1 = 65869548861462069MT.1.2.3 Bus2 = 65866353861461472MT.1.2.3 Linecode = 16512329H-3P_linecode_media Length = 30.232 units = m
New Line.70451069_linha_media Phases = 3 Bus1 = 65471293861322874MT.1.2.3 Bus2 = 65478587861322684MT.1.2.3 Linecode = 16512384H-3P_linecode_media Length = 72.965 units = m
New Line.70450932_linha_media Phases = 3 Bus1 = 65699655861203552MT.1.2.3 Bus2 = 65704880861203037MT.1.2.3 Linecode = 16512384H-3P_linecode_media Length = 54.031 units = m
New Line.18203661_linha_media Phases = 3 Bus1 = 66572676861804030MT.1.2.3 Bus2 = 66570640861815499MT.1.2.3 Linecode = 16512329H-3_linecode_media Length = 116.483 units = m
New Line.18201911_linha_media Phases = 3 Bus1 = 66933501861847225MT.1.2.3 Bus2 = 66938548861836593MT.1.2.3 Linecode = 16512329H-1_linecode_media Length = 117.691 units = m
New Line.70448493_linha_media Phases = 3 Bus1 = 64026749860864989MT.1.2.3 Bus2 = 64022330860867884MT.1.2.3 Linecode = 16512384H-3P_linecode_media Length = 52.829 units = m
New Line.70448964_linha_media Phases = 3 Bus1 = 64129507861030980MT.1.2.3 Bus2 = 64126201861033037MT.1.2.3 Linecode = 16512384H-3P_linecode_media Length = 38.937 units = m
New Line.18209183_linha_media Phases = 3 Bus1 = 66846050862060528MT.1.2.3 Bus2 = 66845714862052937MT.1.2.3 Linecode = 16512329H-1_linecode_media Length = 77.486 units = m
New Line.18205922_linha_media Phases = 3 Bus1 = 66673422861987500MT.1.2.3 Bus2 = 66674698861980286MT.1.2.3 Linecode = 16512329H-3P_linecode_media Length = 73.26 units = m
New Line.71486580_linha_media Phases = 3 Bus1 = 67175360862412643MT.1.2.3 Bus2 = 67184298862420088MT.1.2.3 Linecode = 16512329H-3P_linecode_media Length = 116.325 units = m
New Line.13537295_linha_media Phases = 3 Bus1 = 65971162861439434MT.1.2.3 Bus2 = 65973105861429814MT.1.2.3 Linecode = 16512329H-3_linecode_media Length = 96.649 units = m
New Line.70451064_linha_media Phases = 3 Bus1 = 65434520861324109MT.1.2.3 Bus2 = 65443281861325739MT.1.2.3 Linecode = 16512384H-3P_linecode_media Length = 89.113 units = m
New Line.70448024_linha_media Phases = 3 Bus1 = 64039585860867381MT.1.2.3 Bus2 = 64040695860866655MT.1.2.3 Linecode = 16512384H-3P_linecode_media Length = 13.263 units = m
New Line.70451080_linha_media Phases = 3 Bus1 = 65551311861313620MT.1.2.3 Bus2 = 65555930861307410MT.1.2.3 Linecode = 16512384H-3P_linecode_media Length = 77.395 units = m
New Line.70448529_linha_media Phases = 3 Bus1 = 64115392860979682MT.1.2.3 Bus2 = 64117659860982515MT.1.2.3 Linecode = 16512384H-3P_linecode_media Length = 36.284 units = m
New Line.70448533_linha_media Phases = 3 Bus1 = 64122912860991971MT.1.2.3 Bus2 = 64126165860997104MT.1.2.3 Linecode = 16512384H-3P_linecode_media Length = 60.77 units = m
New Line.71551508_linha_media Phases = 3 Bus1 = 68186798862329481MT.1.2.3 Bus2 = 68197046862323047MT.1.2.3 Linecode = 16512329H-3P_linecode_media Length = 121.003 units = m
New Line.70449626_linha_media Phases = 3 Bus1 = 64164226861291547MT.1.2.3 Bus2 = 64170229861296498MT.1.2.3 Linecode = 16512384H-3P_linecode_media Length = 77.813 units = m
New Line.13420121_linha_media Phases = 3 Bus1 = 66490298861550457MT.1.2.3 Bus2 = 66490310861561223MT.1.2.3 Linecode = 16512329H-3P_linecode_media Length = 109.16 units = m
New Line.70449183_linha_media Phases = 3 Bus1 = 64083748861085704MT.1.2.3 Bus2 = 64085732861089105MT.1.2.3 Linecode = 16512384H-3P_linecode_media Length = 39.374 units = m
New Line.13543392_linha_media Phases = 3 Bus1 = 67212784861586057MT.1.2.3 Bus2 = 67224880861585904MT.1.2.3 Linecode = 16512329H-1_linecode_media Length = 120.97 units = m
New Line.18206938_linha_media Phases = 3 Bus1 = 66887899861945321MT.1.2.3 Bus2 = 66892728861934313MT.1.2.3 Linecode = 16512329H-1_linecode_media Length = 120.206 units = m
New Line.71486590_linha_media Phases = 3 Bus1 = 67257074862454938MT.1.2.3 Bus2 = 67257712862467147MT.1.2.3 Linecode = 16512329H-3P_linecode_media Length = 123.779 units = m
New Line.18206935_linha_media Phases = 3 Bus1 = 66872616861977675MT.1.2.3 Bus2 = 66877389861966805MT.1.2.3 Linecode = 16512329H-1_linecode_media Length = 118.717 units = m
New Line.18204337_linha_media Phases = 3 Bus1 = 67221621861396507MT.1.2.3 Bus2 = 67233936861395880MT.1.2.3 Linecode = 16512329H-1_linecode_media Length = 123.31 units = m
New Line.70448507_linha_media Phases = 3 Bus1 = 64066379860941079MT.1.2.3 Bus2 = 64067423860943001MT.1.2.3 Linecode = 16512384H-3P_linecode_media Length = 21.872 units = m
New Line.70451100_linha_media Phases = 3 Bus1 = 65664915861226273MT.1.2.3 Bus2 = 65671482861226961MT.1.2.3 Linecode = 16512384H-3P_linecode_media Length = 66.029 units = m
New Line.70449697_linha_media Phases = 3 Bus1 = 64654672861174479MT.1.2.3 Bus2 = 64662399861176052MT.1.2.3 Linecode = 16512384H-3P_linecode_media Length = 78.855 units = m
New Line.13420441_linha_media Phases = 3 Bus1 = 66546017861472191MT.1.2.3 Bus2 = 66550689861463999MT.1.2.3 Linecode = 16512329H-3_linecode_media Length = 92.105 units = m
New Line.18202081_linha_media Phases = 3 Bus1 = 67162165862352141MT.1.2.3 Bus2 = 67161407862362120MT.1.2.3 Linecode = 16512329H-3_linecode_media Length = 100.077 units = m
New Line.70449738_linha_media Phases = 3 Bus1 = 64976323861235652MT.1.2.3 Bus2 = 64984237861237270MT.1.2.3 Linecode = 16512384H-3P_linecode_media Length = 80.777 units = m
New Line.70451035_linha_media Phases = 3 Bus1 = 65212491861281710MT.1.2.3 Bus2 = 65220580861283170MT.1.2.3 Linecode = 16512384H-3P_linecode_media Length = 82.197 units = m
New Line.18202899_linha_media Phases = 3 Bus1 = 66953746862083598MT.1.2.3 Bus2 = 66964357862086019MT.1.2.3 Linecode = 16512329H-3_linecode_media Length = 108.837 units = m
New Line.70451067_linha_media Phases = 3 Bus1 = 65455669861323921MT.1.2.3 Bus2 = 65462931861323285MT.1.2.3 Linecode = 16512384H-3P_linecode_media Length = 72.898 units = m
New Line.13089153_linha_media Phases = 3 Bus1 = 66521120861618830MT.1.2.3 Bus2 = 66516667861618246MT.1.2.3 Linecode = 16512329H-3P_linecode_media Length = 42.265 units = m
New Line.18205815_linha_media Phases = 3 Bus1 = 66579750861767842MT.1.2.3 Bus2 = 66578476861777720MT.1.2.3 Linecode = 16512329H-3_linecode_media Length = 99.598 units = m
New Line.18203347_linha_media Phases = 3 Bus1 = 67046548862113257MT.1.2.3 Bus2 = 67056005862119629MT.1.2.3 Linecode = 16512329H-3_linecode_media Length = 114.034 units = m
New Line.13537526_linha_media Phases = 3 Bus1 = 66049208861436386MT.1.2.3 Bus2 = 66059794861438615MT.1.2.3 Linecode = 16512329H-3_linecode_media Length = 108.181 units = m
New Line.70456210_linha_media Phases = 3 Bus1 = 64140136861019548MT.1.2.3 Bus2 = 64142229861022559MT.1.2.3 Linecode = 16512384H-3P_linecode_media Length = 36.67 units = m
New Line.71486682_linha_media Phases = 3 Bus1 = 67258501862479017MT.1.2.3 Bus2 = 67259329862478961MT.1.2.3 Linecode = 16512329H-3P_linecode_media Length = 5.817 units = m
New Line.18211659_linha_media Phases = 3 Bus1 = 66984364861738495MT.1.2.3 Bus2 = 66989916861727787MT.1.2.3 Linecode = 16512329H-1_linecode_media Length = 120.618 units = m
New Line.70449708_linha_media Phases = 3 Bus1 = 64739749861190541MT.1.2.3 Bus2 = 64747778861192061MT.1.2.3 Linecode = 16512384H-3P_linecode_media Length = 81.716 units = m
New Line.18203473_linha_media Phases = 3 Bus1 = 66581373861685001MT.1.2.3 Bus2 = 66582117861699084MT.1.2.3 Linecode = 16512329H-3_linecode_media Length = 141.026 units = m
New Line.18202687_linha_media Phases = 3 Bus1 = 66544442861931182MT.1.2.3 Bus2 = 66541373861943854MT.1.2.3 Linecode = 16512329H-3_linecode_media Length = 130.383 units = m
New Line.18204475_linha_media Phases = 3 Bus1 = 66533299861982639MT.1.2.3 Bus2 = 66530770861994974MT.1.2.3 Linecode = 16512329H-3_linecode_media Length = 125.916 units = m
New Line.70449690_linha_media Phases = 3 Bus1 = 64598401861163827MT.1.2.3 Bus2 = 64606547861165267MT.1.2.3 Linecode = 16512384H-3P_linecode_media Length = 82.723 units = m
New Line.71551088_linha_media Phases = 3 Bus1 = 67462960862441734MT.1.2.3 Bus2 = 67468659862446352MT.1.2.3 Linecode = 16512329H-3P_linecode_media Length = 73.352 units = m
New Line.13420447_linha_media Phases = 3 Bus1 = 66637251861437339MT.1.2.3 Bus2 = 66640373861426358MT.1.2.3 Linecode = 16512329H-3_linecode_media Length = 114.162 units = m
New Line.18202695_linha_media Phases = 3 Bus1 = 67007250862096483MT.1.2.3 Bus2 = 67017944862099110MT.1.2.3 Linecode = 16512329H-3_linecode_media Length = 110.119 units = m
New Line.70451045_linha_media Phases = 3 Bus1 = 65291427861296994MT.1.2.3 Bus2 = 65299250861298479MT.1.2.3 Linecode = 16512384H-3P_linecode_media Length = 79.627 units = m
New Line.70451046_linha_media Phases = 3 Bus1 = 65299250861298479MT.1.2.3 Bus2 = 65306831861299975MT.1.2.3 Linecode = 16512384H-3P_linecode_media Length = 77.272 units = m
New Line.18202080_linha_media Phases = 3 Bus1 = 67162576862342053MT.1.2.3 Bus2 = 67162165862352141MT.1.2.3 Linecode = 16512329H-3_linecode_media Length = 100.964 units = m
New Line.14863407_linha_media Phases = 3 Bus1 = 66299233861510010MT.1.2.3 Bus2 = 66303636861513024MT.1.2.3 Linecode = 16512329H-3_linecode_media Length = 51.37 units = m
New Line.18203476_linha_media Phases = 3 Bus1 = 66580680861637477MT.1.2.3 Bus2 = 66581497861657531MT.1.2.3 Linecode = 16512329H-3_linecode_media Length = 200.706 units = m
New Line.70449712_linha_media Phases = 3 Bus1 = 64772631861197114MT.1.2.3 Bus2 = 64778655861198321MT.1.2.3 Linecode = 16512384H-3P_linecode_media Length = 61.437 units = m
New Line.70449653_linha_media Phases = 3 Bus1 = 64308413861164107MT.1.2.3 Bus2 = 64315367861160320MT.1.2.3 Linecode = 16512384H-3P_linecode_media Length = 79.183 units = m
New Line.70451106_linha_media Phases = 3 Bus1 = 65694441861204105MT.1.2.3 Bus2 = 65699655861203552MT.1.2.3 Linecode = 16512384H-3P_linecode_media Length = 52.432 units = m
New Line.70448513_linha_media Phases = 3 Bus1 = 64082462860933519MT.1.2.3 Bus2 = 64086183860933029MT.1.2.3 Linecode = 16512384H-3P_linecode_media Length = 37.531 units = m
New Line.71551339_linha_media Phases = 3 Bus1 = 67593650862532760MT.1.2.3 Bus2 = 67605174862533605MT.1.2.3 Linecode = 16512329H-3P_linecode_media Length = 115.549 units = m
New Line.70449711_linha_media Phases = 3 Bus1 = 64764487861195798MT.1.2.3 Bus2 = 64772631861197114MT.1.2.3 Linecode = 16512384H-3P_linecode_media Length = 82.496 units = m
New Line.18203654_linha_media Phases = 3 Bus1 = 67077447861499142MT.1.2.3 Bus2 = 67086420861491956MT.1.2.3 Linecode = 16512329H-1_linecode_media Length = 114.958 units = m
New Line.71551494_linha_media Phases = 3 Bus1 = 68020749862567479MT.1.2.3 Bus2 = 68056614862319109MT.1.2.3 Linecode = 16512329H-3P_linecode_media Length = 2509.461 units = m
New Line.13703528_linha_media Phases = 3 Bus1 = 66546239861611768MT.1.2.3 Bus2 = 66546496861613570MT.1.2.3 Linecode = 16512329H-3_linecode_media Length = 14.01 units = m
New Line.13725177_linha_media Phases = 3 Bus1 = 66217493861492774MT.1.2.3 Bus2 = 66228094861495140MT.1.2.3 Linecode = 16512329H-3_linecode_media Length = 108.618 units = m
New Line.18209184_linha_media Phases = 3 Bus1 = 66845714862052937MT.1.2.3 Bus2 = 66845744862044943MT.1.2.3 Linecode = 16512329H-1_linecode_media Length = 79.941 units = m
New Line.18203873_linha_media Phases = 3 Bus1 = 67167374862215608MT.1.2.3 Bus2 = 67166862862226756MT.1.2.3 Linecode = 16512329H-3_linecode_media Length = 111.598 units = m
New Line.70448975_linha_media Phases = 3 Bus1 = 64091287861054375MT.1.2.3 Bus2 = 64088830861055905MT.1.2.3 Linecode = 16512384H-3P_linecode_media Length = 28.944 units = m
New Line.70449636_linha_media Phases = 3 Bus1 = 64217048861235335MT.1.2.3 Bus2 = 64222504861230588MT.1.2.3 Linecode = 16512384H-3P_linecode_media Length = 72.32 units = m
New Line.70449625_linha_media Phases = 3 Bus1 = 64160892861286055MT.1.2.3 Bus2 = 64164226861291547MT.1.2.3 Linecode = 16512384H-3P_linecode_media Length = 64.248 units = m
New Line.71551340_linha_media Phases = 3 Bus1 = 67605174862533605MT.1.2.3 Bus2 = 67616664862534518MT.1.2.3 Linecode = 16512329H-3P_linecode_media Length = 115.262 units = m
New Line.18205357_linha_media Phases = 3 Bus1 = 67172661862271961MT.1.2.3 Bus2 = 67173100862266927MT.1.2.3 Linecode = 16512329H-3P_linecode_media Length = 47.941 units = m
New Line.70449682_linha_media Phases = 3 Bus1 = 64535797861151268MT.1.2.3 Bus2 = 64543708861152678MT.1.2.3 Linecode = 16512384H-3P_linecode_media Length = 80.357 units = m
New Line.70448517_linha_media Phases = 3 Bus1 = 64092318860941743MT.1.2.3 Bus2 = 64095099860947684MT.1.2.3 Linecode = 16512384H-3P_linecode_media Length = 65.597 units = m
New Line.18211426_linha_media Phases = 3 Bus1 = 67177266861402047MT.1.2.3 Bus2 = 67187805861398872MT.1.2.3 Linecode = 16512329H-1_linecode_media Length = 110.069 units = m
New Line.70451047_linha_media Phases = 3 Bus1 = 65306831861299975MT.1.2.3 Bus2 = 65313494861301214MT.1.2.3 Linecode = 16512384H-3P_linecode_media Length = 67.772 units = m
New Line.13543384_linha_media Phases = 3 Bus1 = 67188552861586381MT.1.2.3 Bus2 = 67200922861586142MT.1.2.3 Linecode = 16512329H-1_linecode_media Length = 123.723 units = m
New Line.13703529_linha_media Phases = 3 Bus1 = 66535856861610808MT.1.2.3 Bus2 = 66546239861611768MT.1.2.3 Linecode = 16512329H-3P_linecode_media Length = 104.273 units = m
New Line.70448535_linha_media Phases = 3 Bus1 = 64127704860999645MT.1.2.3 Bus2 = 64129252861002227MT.1.2.3 Linecode = 16512384H-3P_linecode_media Length = 30.105 units = m
New Line.70449588_linha_media Phases = 3 Bus1 = 64116165861141724MT.1.2.3 Bus2 = 64118086861145026MT.1.2.3 Linecode = 16512384H-3P_linecode_media Length = 38.201 units = m
New Line.13806447_linha_media Phases = 3 Bus1 = 65743686861390900MT.1.2.3 Bus2 = 65755431861393328MT.1.2.3 Linecode = 16512329H-3_linecode_media Length = 119.933 units = m
New Line.13806161_linha_media Phases = 3 Bus1 = 65702209861189710MT.1.2.3 Bus2 = 65699342861178836MT.1.2.3 Linecode = 16512329H-3P_linecode_media Length = 112.456 units = m
New Line.71387771_linha_media Phases = 3 Bus1 = 66567034861613887MT.1.2.3 Bus2 = 66580065861614478MT.1.2.3 Linecode = 16512329H-3_linecode_media Length = 128.712 units = m
New Line.13543674_linha_media Phases = 3 Bus1 = 67272916861586247MT.1.2.3 Bus2 = 67285023861586394MT.1.2.3 Linecode = 16512329H-1_linecode_media Length = 121.079 units = m
New Line.70449634_linha_media Phases = 3 Bus1 = 64205756861255688MT.1.2.3 Bus2 = 64211942861243669MT.1.2.3 Linecode = 16512384H-3P_linecode_media Length = 135.175 units = m
New Line.70449731_linha_media Phases = 3 Bus1 = 64922202861225752MT.1.2.3 Bus2 = 64930697861227396MT.1.2.3 Linecode = 16512384H-3P_linecode_media Length = 86.526 units = m
New Line.70451033_linha_media Phases = 3 Bus1 = 65197019861278534MT.1.2.3 Bus2 = 65204498861279859MT.1.2.3 Linecode = 16512384H-3P_linecode_media Length = 75.955 units = m
New Line.70449706_linha_media Phases = 3 Bus1 = 64725821861188406MT.1.2.3 Bus2 = 64734068861189489MT.1.2.3 Linecode = 16512384H-3P_linecode_media Length = 83.178 units = m
New Line.18204477_linha_media Phases = 3 Bus1 = 66538330861956773MT.1.2.3 Bus2 = 66535658861969814MT.1.2.3 Linecode = 16512329H-3_linecode_media Length = 133.119 units = m
New Line.70448524_linha_media Phases = 3 Bus1 = 64105221860963881MT.1.2.3 Bus2 = 64106832860966906MT.1.2.3 Linecode = 16512384H-3P_linecode_media Length = 34.272 units = m
New Line.70449722_linha_media Phases = 3 Bus1 = 64850605861212131MT.1.2.3 Bus2 = 64858721861213798MT.1.2.3 Linecode = 16512384H-3P_linecode_media Length = 82.854 units = m
New Line.13646733_linha_media Phases = 3 Bus1 = 65866353861461472MT.1.2.3 Bus2 = 65860678861453850MT.1.2.3 Linecode = 16512329H-3P_linecode_media Length = 92.709 units = m
New Line.18211649_linha_media Phases = 3 Bus1 = 67198622861397215MT.1.2.3 Bus2 = 67210431861396885MT.1.2.3 Linecode = 16512329H-1_linecode_media Length = 118.136 units = m
New Line.18203662_linha_media Phases = 3 Bus1 = 66575237861790674MT.1.2.3 Bus2 = 66572676861804030MT.1.2.3 Linecode = 16512329H-3_linecode_media Length = 135.993 units = m
New Line.13420133_linha_media Phases = 3 Bus1 = 66523316861475864MT.1.2.3 Bus2 = 66534149861474174MT.1.2.3 Linecode = 16512329H-3_linecode_media Length = 109.64 units = m
New Line.13537527_linha_media Phases = 3 Bus1 = 66068257861450045MT.1.2.3 Bus2 = 66065984861459399MT.1.2.3 Linecode = 16512329H-3_linecode_media Length = 96.262 units = m
New Line.13631020_linha_media Phases = 3 Bus1 = 67357803861618367MT.1.2.3 Bus2 = 67352395861630061MT.1.2.3 Linecode = 16512329H-1_linecode_media Length = 128.839 units = m
New Line.70449640_linha_media Phases = 3 Bus1 = 64235789861216601MT.1.2.3 Bus2 = 64240533861211427MT.1.2.3 Linecode = 16512384H-3P_linecode_media Length = 70.197 units = m
New Line.70448531_linha_media Phases = 3 Bus1 = 64119798860985457MT.1.2.3 Bus2 = 64121514860988328MT.1.2.3 Linecode = 16512384H-3P_linecode_media Length = 33.447 units = m
New Line.70451026_linha_media Phases = 3 Bus1 = 65142561861267827MT.1.2.3 Bus2 = 65150489861269355MT.1.2.3 Linecode = 16512384H-3P_linecode_media Length = 80.739 units = m
New Line.13420132_linha_media Phases = 3 Bus1 = 66534149861474174MT.1.2.3 Bus2 = 66546017861472191MT.1.2.3 Linecode = 16512329H-3_linecode_media Length = 120.325 units = m
New Line.70449732_linha_media Phases = 3 Bus1 = 64930697861227396MT.1.2.3 Bus2 = 64938352861228956MT.1.2.3 Linecode = 16512384H-3P_linecode_media Length = 78.123 units = m
New Line.70451091_linha_media Phases = 3 Bus1 = 65601053861240800MT.1.2.3 Bus2 = 65605692861234170MT.1.2.3 Linecode = 16512384H-3P_linecode_media Length = 80.918 units = m
New Line.13420458_linha_media Phases = 3 Bus1 = 66617216861216095MT.1.2.3 Bus2 = 66616289861204217MT.1.2.3 Linecode = 16512329H-3_linecode_media Length = 119.141 units = m
New Line.70448977_linha_media Phases = 3 Bus1 = 64086170861057441MT.1.2.3 Bus2 = 64083729861058665MT.1.2.3 Linecode = 16512384H-3P_linecode_media Length = 27.307 units = m
New Line.70451070_linha_media Phases = 3 Bus1 = 65478587861322684MT.1.2.3 Bus2 = 65484758861322233MT.1.2.3 Linecode = 16512384H-3P_linecode_media Length = 61.875 units = m
New Line.14847817_linha_media Phases = 3 Bus1 = 66073342861461520MT.1.2.3 Bus2 = 66069573861469897MT.1.2.3 Linecode = 16512329H-3_linecode_media Length = 93.362 units = m
New Line.70451090_linha_media Phases = 3 Bus1 = 65596973861248416MT.1.2.3 Bus2 = 65601053861240800MT.1.2.3 Linecode = 16512384H-3P_linecode_media Length = 86.4 units = m
New Line.70451041_linha_media Phases = 3 Bus1 = 65259937861290679MT.1.2.3 Bus2 = 65267852861292131MT.1.2.3 Linecode = 16512384H-3P_linecode_media Length = 80.471 units = m
New Line.70448519_linha_media Phases = 3 Bus1 = 64096596860950286MT.1.2.3 Bus2 = 64097631860952450MT.1.2.3 Linecode = 16512384H-3P_linecode_media Length = 23.988 units = m
New Line.13537290_linha_media Phases = 3 Bus1 = 65930132861430790MT.1.2.3 Bus2 = 65940908861433218MT.1.2.3 Linecode = 16512329H-3_linecode_media Length = 106.721 units = m
New Line.70451054_linha_media Phases = 3 Bus1 = 65356619861309439MT.1.2.3 Bus2 = 65364726861310971MT.1.2.3 Linecode = 16512384H-3P_linecode_media Length = 82.505 units = m
New Line.71486587_linha_media Phases = 3 Bus1 = 67232813862453445MT.1.2.3 Bus2 = 67242225862454470MT.1.2.3 Linecode = 16512329H-3P_linecode_media Length = 94.676 units = m
New Line.13806445_linha_media Phases = 3 Bus1 = 65712548861233699MT.1.2.3 Bus2 = 65709363861244773MT.1.2.3 Linecode = 16512329H-3P_linecode_media Length = 112.413 units = m
New Line.71551073_linha_media Phases = 3 Bus1 = 67302534862449765MT.1.2.3 Bus2 = 67313722862448431MT.1.2.3 Linecode = 16512329H-3P_linecode_media Length = 112.672 units = m
New Line.13420455_linha_media Phases = 3 Bus1 = 66615220861180786MT.1.2.3 Bus2 = 66614583861170004MT.1.2.3 Linecode = 16512329H-3_linecode_media Length = 108.008 units = m
New Line.13420136_linha_media Phases = 3 Bus1 = 66596890861461287MT.1.2.3 Bus2 = 66608553861460613MT.1.2.3 Linecode = 16512329H-3_linecode_media Length = 116.825 units = m
New Line.70448974_linha_media Phases = 3 Bus1 = 64099539861049610MT.1.2.3 Bus2 = 64091287861054375MT.1.2.3 Linecode = 16512384H-3P_linecode_media Length = 95.289 units = m
New Line.70448522_linha_media Phases = 3 Bus1 = 64102034860959166MT.1.2.3 Bus2 = 64103641860961187MT.1.2.3 Linecode = 16512384H-3P_linecode_media Length = 25.82 units = m
New Line.70449195_linha_media Phases = 3 Bus1 = 64103834861116768MT.1.2.3 Bus2 = 64105174861118998MT.1.2.3 Linecode = 16512384H-3P_linecode_media Length = 26.016 units = m
New Line.70448500_linha_media Phases = 3 Bus1 = 64040855860900812MT.1.2.3 Bus2 = 64044377860906283MT.1.2.3 Linecode = 16512384H-3P_linecode_media Length = 65.066 units = m
New Line.70451071_linha_media Phases = 3 Bus1 = 65484758861322233MT.1.2.3 Bus2 = 65492754861322138MT.1.2.3 Linecode = 16512384H-3P_linecode_media Length = 79.966 units = m
New Line.18201910_linha_media Phases = 3 Bus1 = 66928402861858206MT.1.2.3 Bus2 = 66933501861847225MT.1.2.3 Linecode = 16512329H-1_linecode_media Length = 121.071 units = m
New Line.13806450_linha_media Phases = 3 Bus1 = 65706716861313949MT.1.2.3 Bus2 = 65715674861320338MT.1.2.3 Linecode = 16512329H-3P_linecode_media Length = 110.03 units = m
New Line.70449635_linha_media Phases = 3 Bus1 = 64211942861243669MT.1.2.3 Bus2 = 64217048861235335MT.1.2.3 Linecode = 16512384H-3P_linecode_media Length = 97.738 units = m
New Line.13631309_linha_media Phases = 3 Bus1 = 67176677861586451MT.1.2.3 Bus2 = 67188552861586381MT.1.2.3 Linecode = 16512329H-1_linecode_media Length = 118.752 units = m
New Line.70449633_linha_media Phases = 3 Bus1 = 64199931861259801MT.1.2.3 Bus2 = 64205756861255688MT.1.2.3 Linecode = 16512384H-3P_linecode_media Length = 71.307 units = m
New Line.18205353_linha_media Phases = 3 Bus1 = 66747098862046886MT.1.2.3 Bus2 = 66757411862048779MT.1.2.3 Linecode = 16512329H-3_linecode_media Length = 104.853 units = m
New Line.70449666_linha_media Phases = 3 Bus1 = 64409362861127162MT.1.2.3 Bus2 = 64414800861127653MT.1.2.3 Linecode = 16512384H-3P_linecode_media Length = 54.601 units = m
New Line.70448521_linha_media Phases = 3 Bus1 = 64100220860956690MT.1.2.3 Bus2 = 64102034860959166MT.1.2.3 Linecode = 16512384H-3P_linecode_media Length = 30.694 units = m
New Line.71551084_linha_media Phases = 3 Bus1 = 67425291862434910MT.1.2.3 Bus2 = 67436114862433557MT.1.2.3 Linecode = 16512329H-3P_linecode_media Length = 109.072 units = m
New Line.13420721_linha_media Phases = 3 Bus1 = 66619706861283505MT.1.2.3 Bus2 = 66619445861274212MT.1.2.3 Linecode = 16512329H-3_linecode_media Length = 89.554 units = m
New Line.13468904_linha_media Phases = 3 Bus1 = 67164488862271037MT.1.2.3 Bus2 = 67164653862274099MT.1.2.3 Linecode = 16512329H-3_linecode_media Length = 30.664 units = m
New Line.13420120_linha_media Phases = 3 Bus1 = 66489625861535526MT.1.2.3 Bus2 = 66490298861550307MT.1.2.3 Linecode = 16512329H-3P_linecode_media Length = 145.724 units = m
New Line.70449648_linha_media Phases = 3 Bus1 = 64270806861180607MT.1.2.3 Bus2 = 64278524861177170MT.1.2.3 Linecode = 16512384H-3P_linecode_media Length = 84.487 units = m
New Line.70451095_linha_media Phases = 3 Bus1 = 65626744861228545MT.1.2.3 Bus2 = 65634568861228229MT.1.2.3 Linecode = 16512384H-3P_linecode_media Length = 78.304 units = m
New Line.13806734_linha_media Phases = 3 Bus1 = 65721566861363990MT.1.2.3 Bus2 = 65722893861375968MT.1.2.3 Linecode = 16512329H-3P_linecode_media Length = 120.513 units = m
New Line.13806437_linha_media Phases = 3 Bus1 = 65700171861286165MT.1.2.3 Bus2 = 65699014861296190MT.1.2.3 Linecode = 16512329H-3P_linecode_media Length = 100.915 units = m
New Line.70451025_linha_media Phases = 3 Bus1 = 65134456861266114MT.1.2.3 Bus2 = 65142561861267827MT.1.2.3 Linecode = 16512384H-3P_linecode_media Length = 82.84 units = m
New Line.18206931_linha_media Phases = 3 Bus1 = 66852742862021155MT.1.2.3 Bus2 = 66857289862009845MT.1.2.3 Linecode = 16512329H-1_linecode_media Length = 121.898 units = m
New Line.71551337_linha_media Phases = 3 Bus1 = 67571242862530855MT.1.2.3 Bus2 = 67582487862532067MT.1.2.3 Linecode = 16512329H-3P_linecode_media Length = 113.101 units = m
New Line.70449608_linha_media Phases = 3 Bus1 = 64131321861203315MT.1.2.3 Bus2 = 64130895861206776MT.1.2.3 Linecode = 16512384H-3P_linecode_media Length = 34.871 units = m
New Line.18204473_linha_media Phases = 3 Bus1 = 66528481862008261MT.1.2.3 Bus2 = 66526184862020980MT.1.2.3 Linecode = 16512329H-3_linecode_media Length = 129.248 units = m
New Line.70449736_linha_media Phases = 3 Bus1 = 64962098861233208MT.1.2.3 Bus2 = 64968436861234293MT.1.2.3 Linecode = 16512384H-3P_linecode_media Length = 64.302 units = m
New Line.70449747_linha_media Phases = 3 Bus1 = 65048229861249394MT.1.2.3 Bus2 = 65056076861251024MT.1.2.3 Linecode = 16512384H-3P_linecode_media Length = 80.145 units = m
New Line.13537287_linha_media Phases = 3 Bus1 = 65919201861442587MT.1.2.3 Bus2 = 65914120861449020MT.1.2.3 Linecode = 16512329H-3P_linecode_media Length = 81.976 units = m
New Line.71551497_linha_media Phases = 3 Bus1 = 68078168862323873MT.1.2.3 Bus2 = 68088840862326202MT.1.2.3 Linecode = 16512329H-3P_linecode_media Length = 109.232 units = m
New Line.70449671_linha_media Phases = 3 Bus1 = 64446478861133276MT.1.2.3 Bus2 = 64455082861134952MT.1.2.3 Linecode = 16512384H-3P_linecode_media Length = 87.657 units = m
New Line.13806735_linha_media Phases = 3 Bus1 = 65715674861320338MT.1.2.3 Bus2 = 65717328861331520MT.1.2.3 Linecode = 16512329H-3P_linecode_media Length = 110.47 units = m
New Line.18205921_linha_media Phases = 3 Bus1 = 66672121861993657MT.1.2.3 Bus2 = 66673422861987500MT.1.2.3 Linecode = 16512329H-3_linecode_media Length = 60.424 units = m
New Line.13420137_linha_media Phases = 3 Bus1 = 66585558861461897MT.1.2.3 Bus2 = 66596890861461287MT.1.2.3 Linecode = 16512329H-3_linecode_media Length = 113.484 units = m
New Line.13725196_linha_media Phases = 3 Bus1 = 66396171861513234MT.1.2.3 Bus2 = 66404457861504838MT.1.2.3 Linecode = 16512329H-3_linecode_media Length = 116.178 units = m
New Line.13537292_linha_media Phases = 3 Bus1 = 65962959861437477MT.1.2.3 Bus2 = 65971162861439434MT.1.2.3 Linecode = 16512329H-3_linecode_media Length = 84.332 units = m
New Line.18205927_linha_media Phases = 3 Bus1 = 66684637862012731MT.1.2.3 Bus2 = 66693982862018995MT.1.2.3 Linecode = 16512329H-3_linecode_media Length = 112.502 units = m
New Line.18203474_linha_media Phases = 3 Bus1 = 66581706861671744MT.1.2.3 Bus2 = 66581373861685001MT.1.2.3 Linecode = 16512329H-3_linecode_media Length = 132.612 units = m
New Line.13420122_linha_media Phases = 3 Bus1 = 66490310861561223MT.1.2.3 Bus2 = 66485413861571066MT.1.2.3 Linecode = 16512329H-3P_linecode_media Length = 109.939 units = m
New Line.18206937_linha_media Phases = 3 Bus1 = 66882870861955897MT.1.2.3 Bus2 = 66887899861945321MT.1.2.3 Linecode = 16512329H-1_linecode_media Length = 117.108 units = m
New Line.70451057_linha_media Phases = 3 Bus1 = 65380613861313949MT.1.2.3 Bus2 = 65388046861315155MT.1.2.3 Linecode = 16512384H-3P_linecode_media Length = 75.302 units = m
New Line.18206566_linha_media Phases = 3 Bus1 = 67025624861651670MT.1.2.3 Bus2 = 67030576861640541MT.1.2.3 Linecode = 16512329H-1_linecode_media Length = 121.81 units = m
New Line.70449709_linha_media Phases = 3 Bus1 = 64747778861192061MT.1.2.3 Bus2 = 64755420861193715MT.1.2.3 Linecode = 16512384H-3P_linecode_media Length = 78.189 units = m
New Line.70449641_linha_media Phases = 3 Bus1 = 64240533861211427MT.1.2.3 Bus2 = 64243162861207842MT.1.2.3 Linecode = 16512384H-3P_linecode_media Length = 44.457 units = m
New Line.18202832_linha_media Phases = 3 Bus1 = 67303993861307492MT.1.2.3 Bus2 = 67306746861295491MT.1.2.3 Linecode = 16512329H-1_linecode_media Length = 123.127 units = m
New Line.18209180_linha_media Phases = 3 Bus1 = 66856963862062043MT.1.2.3 Bus2 = 66868027862063305MT.1.2.3 Linecode = 16512329H-3_linecode_media Length = 111.357 units = m
New Line.18211663_linha_media Phases = 3 Bus1 = 67005047861694949MT.1.2.3 Bus2 = 67009674861683937MT.1.2.3 Linecode = 16512329H-1_linecode_media Length = 115.884 units = m
New Line.70448512_linha_media Phases = 3 Bus1 = 64079092860935737MT.1.2.3 Bus2 = 64082462860933519MT.1.2.3 Linecode = 16512384H-3P_linecode_media Length = 40.344 units = m
New Line.70451028_linha_media Phases = 3 Bus1 = 65158148861270694MT.1.2.3 Bus2 = 65166171861272260MT.1.2.3 Linecode = 16512384H-3P_linecode_media Length = 81.744 units = m
New Line.70449616_linha_media Phases = 3 Bus1 = 64131976861232291MT.1.2.3 Bus2 = 64132623861235290MT.1.2.3 Linecode = 16512384H-3P_linecode_media Length = 30.68 units = m
New Line.18211552_linha_media Phases = 3 Bus1 = 66524264862030770MT.1.2.3 Bus2 = 66537020862028737MT.1.2.3 Linecode = 16512329H-3_linecode_media Length = 129.17 units = m
New Line.70456202_linha_media Phases = 3 Bus1 = 64142229861022559MT.1.2.3 Bus2 = 64143857861021618MT.1.2.3 Linecode = 16512384H-3P_linecode_media Length = 18.804 units = m
New Line.18212380_linha_media Phases = 3 Bus1 = 67041189861618667MT.1.2.3 Bus2 = 67046215861607906MT.1.2.3 Linecode = 16512329H-1_linecode_media Length = 118.769 units = m
New Line.70451062_linha_media Phases = 3 Bus1 = 65419451861321491MT.1.2.3 Bus2 = 65426732861322801MT.1.2.3 Linecode = 16512384H-3P_linecode_media Length = 73.979 units = m
New Line.13646507_linha_media Phases = 3 Bus1 = 66402842861521347MT.1.2.3 Bus2 = 66396171861513234MT.1.2.3 Linecode = 16512329H-3_linecode_media Length = 102.689 units = m
New Line.18207757_linha_media Phases = 3 Bus1 = 66911202862072695MT.1.2.3 Bus2 = 66921462862075589MT.1.2.3 Linecode = 16512329H-3_linecode_media Length = 106.603 units = m
New Line.18202902_linha_media Phases = 3 Bus1 = 66921462862075589MT.1.2.3 Bus2 = 66932060862078167MT.1.2.3 Linecode = 16512329H-3_linecode_media Length = 109.07 units = m
New Line.18202288_linha_media Phases = 3 Bus1 = 67160401861413566MT.1.2.3 Bus2 = 67165611861405795MT.1.2.3 Linecode = 16512329H-1_linecode_media Length = 93.559 units = m
New Line.71551077_linha_media Phases = 3 Bus1 = 67347405862444448MT.1.2.3 Bus2 = 67358341862442923MT.1.2.3 Linecode = 16512329H-3P_linecode_media Length = 110.418 units = m
New Line.18205053_linha_media Phases = 3 Bus1 = 66954180861803428MT.1.2.3 Bus2 = 66959088861793052MT.1.2.3 Linecode = 16512329H-1_linecode_media Length = 114.782 units = m
New Line.70449727_linha_media Phases = 3 Bus1 = 64889676861219510MT.1.2.3 Bus2 = 64897525861220965MT.1.2.3 Linecode = 16512384H-3P_linecode_media Length = 79.827 units = m
New Line.70451055_linha_media Phases = 3 Bus1 = 65364726861310971MT.1.2.3 Bus2 = 65372629861312693MT.1.2.3 Linecode = 16512384H-3P_linecode_media Length = 80.884 units = m
New Line.18202696_linha_media Phases = 3 Bus1 = 66996443862093852MT.1.2.3 Bus2 = 67007250862096483MT.1.2.3 Linecode = 16512329H-3_linecode_media Length = 111.227 units = m
New Line.70451078_linha_media Phases = 3 Bus1 = 65539965861320460MT.1.2.3 Bus2 = 65547001861318690MT.1.2.3 Linecode = 16512384H-3P_linecode_media Length = 72.552 units = m
New Line.71551258_linha_media Phases = 3 Bus1 = 67496156862511591MT.1.2.3 Bus2 = 67500515862521467MT.1.2.3 Linecode = 16512329H-3P_linecode_media Length = 107.952 units = m
New Line.13089152_linha_media Phases = 3 Bus1 = 66523000861609773MT.1.2.3 Bus2 = 66521120861618830MT.1.2.3 Linecode = 16512329H-3P_linecode_media Length = 89.031 units = m
New Line.18202697_linha_media Phases = 3 Bus1 = 66985720862091200MT.1.2.3 Bus2 = 66996443862093852MT.1.2.3 Linecode = 16512329H-3_linecode_media Length = 110.461 units = m
New Line.18209170_linha_media Phases = 3 Bus1 = 66912884861890212MT.1.2.3 Bus2 = 66918365861879726MT.1.2.3 Linecode = 16512329H-1_linecode_media Length = 118.321 units = m
New Line.18210315_linha_media Phases = 3 Bus1 = 67104959861476358MT.1.2.3 Bus2 = 67111970861470087MT.1.2.3 Linecode = 16512329H-1_linecode_media Length = 94.064 units = m
New Line.70449713_linha_media Phases = 3 Bus1 = 64778655861198321MT.1.2.3 Bus2 = 64786498861199933MT.1.2.3 Linecode = 16512384H-3P_linecode_media Length = 80.069 units = m
New Line.18203669_linha_media Phases = 3 Bus1 = 67112227862156560MT.1.2.3 Bus2 = 67122451862162526MT.1.2.3 Linecode = 16512329H-3_linecode_media Length = 118.374 units = m
New Line.18209177_linha_media Phases = 3 Bus1 = 66889115862067629MT.1.2.3 Bus2 = 66900328862070286MT.1.2.3 Linecode = 16512329H-3_linecode_media Length = 115.235 units = m
New Line.18211664_linha_media Phases = 3 Bus1 = 67009674861683937MT.1.2.3 Bus2 = 67015498861672815MT.1.2.3 Linecode = 16512329H-1_linecode_media Length = 125.546 units = m
New Line.71551237_linha_media Phases = 3 Bus1 = 67508918862523727MT.1.2.3 Bus2 = 67517371862525820MT.1.2.3 Linecode = 16512329H-3P_linecode_media Length = 87.083 units = m
New Line.70449723_linha_media Phases = 3 Bus1 = 64858721861213798MT.1.2.3 Bus2 = 64866445861215072MT.1.2.3 Linecode = 16512384H-3P_linecode_media Length = 78.284 units = m
New Line.70449192_linha_media Phases = 3 Bus1 = 64099287861109629MT.1.2.3 Bus2 = 64101198861112106MT.1.2.3 Linecode = 16512384H-3P_linecode_media Length = 31.285 units = m
New Line.18212381_linha_media Phases = 3 Bus1 = 67046215861607906MT.1.2.3 Bus2 = 67051495861596922MT.1.2.3 Linecode = 16512329H-1_linecode_media Length = 121.872 units = m
New Line.71551259_linha_media Phases = 3 Bus1 = 67500515862521467MT.1.2.3 Bus2 = 67508918862523727MT.1.2.3 Linecode = 16512329H-3P_linecode_media Length = 87.016 units = m
New Line.13725183_linha_media Phases = 3 Bus1 = 66288912861507943MT.1.2.3 Bus2 = 66299233861510010MT.1.2.3 Linecode = 16512329H-3_linecode_media Length = 105.259 units = m
...
New Transformer.34563120 Phases=3 Windings=2 xhl=5.0 %noloadloss=0.5
~ wdg=1 bus=66546496861613570ET.1.2.3 conn=delta kv=34.5 kva=30.0 %r=4.0 tap=1
~ wdg=2 bus=66546325861613557BT.1.2.3.0 conn=wye kv=0.22 kva=30.0 %r=4.0 tap=1
New Transformer.34573243 Phases=3 Windings=2 xhl=1.38 %noloadloss=0.405
~ wdg=1 bus=66685188861982897MT.1.2.3 conn=delta kv=34.5 kva=112.5 %r=1.73 tap=1
~ wdg=2 bus=66685086861983046BT.1.2.3.0 conn=wye kv=0.38 kva=112.5 %r=1.73 tap=1
New Transformer.34592148 Phases=3 Windings=2 xhl=3.275 %noloadloss=0.174
~ wdg=1 bus=66069573861469897MT.1.2.3 conn=delta kv=34.5 kva=150.0 %r=1.233 tap=1
~ wdg=2 bus=66069720861469963BT.1.2.3.0 conn=wye kv=0.38 kva=150.0 %r=1.233 tap=1
New Transformer.34601268 Phases=3 Windings=2 xhl=4.342 %noloadloss=0.221
~ wdg=1 bus=67173492862264202MT.1.2.3 conn=delta kv=34.5 kva=300.0 %r=1.183 tap=1
~ wdg=2 bus=67173639862264104BT.1.2.3.0 conn=wye kv=0.38 kva=300.0 %r=1.183 tap=1
New Transformer.34614757 Phases=3 Windings=2 xhl=3.275 %noloadloss=0.121
~ wdg=1 bus=66566025861620290ET.1.2.3 conn=delta kv=34.5 kva=750.0 %r=2.033 tap=1
~ wdg=2 bus=66566182861620361BT.1.2.3.0 conn=wye kv=0.38 kva=750.0 %r=2.033 tap=1
New Transformer.34634653 Phases=3 Windings=2 xhl=5.0 %noloadloss=0.5
~ wdg=1 bus=67163008862291732MT.1.2.3 conn=delta kv=34.5 kva=30.0 %r=4.0 tap=1
~ wdg=2 bus=67162881862291599BT.1.2.3.0 conn=wye kv=0.22 kva=30.0 %r=4.0 tap=1
New Transformer.34654955 Phases=3 Windings=2 xhl=3.275 %noloadloss=0.121
~ wdg=1 bus=66485413861571066ET.1.2.3 conn=delta kv=34.5 kva=30.0 %r=2.033 tap=1
~ wdg=2 bus=66485495861571234BT.1.2.3.0 conn=wye kv=0.38 kva=30.0 %r=2.033 tap=1
New Transformer.34665333 Phases=3 Windings=2 xhl=4.342 %noloadloss=0.221
~ wdg=1 bus=66516667861618246ET.1.2.3 conn=delta kv=34.5 kva=300.0 %r=1.183 tap=1
~ wdg=2 bus=66516616861618418BT.1.2.3.0 conn=wye kv=0.38 kva=300.0 %r=1.183 tap=1
New Transformer.34682866 Phases=3 Windings=2 xhl=2.429 %noloadloss=0.099
~ wdg=1 bus=67115600861473048ET.1.2.3 conn=delta kv=34.5 kva=25.0 %r=1.76 tap=1
~ wdg=2 bus=67115795861473050BT.1.2.3.0 conn=wye kv=0.254 kva=25.0 %r=1.76 tap=1
New Transformer.34698893 Phases=3 Windings=2 xhl=1.38 %noloadloss=0.405
~ wdg=1 bus=65695743861162888ET.1.2.3 conn=delta kv=34.5 kva=112.5 %r=1.73 tap=1
~ wdg=2 bus=65695504861162906BT.1.2.3.0 conn=wye kv=0.38 kva=112.5 %r=1.73 tap=1
New Transformer.34732051 Phases=3 Windings=2 xhl=3.275 %noloadloss=0.174
~ wdg=1 bus=66566025861620290ET.1.2.3 conn=delta kv=34.5 kva=150.0 %r=1.233 tap=1
~ wdg=2 bus=66565864861620399BT.1.2.3.0 conn=wye kv=0.38 kva=150.0 %r=1.233 tap=1
New Transformer.34736295 Phases=3 Windings=2 xhl=3.275 %noloadloss=0.121
~ wdg=1 bus=67346321861675245ET.1.2.3 conn=delta kv=34.5 kva=15.0 %r=2.033 tap=1
~ wdg=2 bus=67346501861675358BT.1.2.3.0 conn=wye kv=0.254 kva=15.0 %r=2.033 tap=1
New Transformer.34746097 Phases=3 Windings=2 xhl=4.321 %noloadloss=0.307
~ wdg=1 bus=66566025861620290ET.1.2.3 conn=delta kv=34.5 kva=1000.0 %r=1.51 tap=1
~ wdg=2 bus=66565802861620242BT.1.2.3.0 conn=wye kv=0.38 kva=1000.0 %r=1.51 tap=1
New Transformer.34755120 Phases=3 Windings=2 xhl=2.429 %noloadloss=0.099
~ wdg=1 bus=67413678861279319ET.1.2.3 conn=delta kv=34.5 kva=25.0 %r=1.76 tap=1
~ wdg=2 bus=67413831861279414BT.1.2.3.0 conn=wye kv=0.254 kva=25.0 %r=1.76 tap=1
New Transformer.34765446 Phases=3 Windings=2 xhl=4.318 %noloadloss=0.209
~ wdg=1 bus=66305693861517874MT.1.2.3 conn=delta kv=34.5 kva=225.0 %r=1.267 tap=1
~ wdg=2 bus=66305553861517928BT.1.2.3.0 conn=wye kv=0.38 kva=225.0 %r=1.267 tap=1
New Transformer.34769574 Phases=3 Windings=2 xhl=3.275 %noloadloss=0.121
~ wdg=1 bus=67151513862462438ET.1.2.3 conn=delta kv=34.5 kva=75.0 %r=2.033 tap=1
~ wdg=2 bus=67151363862462525BT.1.2.3.0 conn=wye kv=0.22 kva=75.0 %r=2.033 tap=1
New Transformer.34774381 Phases=3 Windings=2 xhl=4.318 %noloadloss=0.209
~ wdg=1 bus=66566025861620290ET.1.2.3 conn=delta kv=34.5 kva=225.0 %r=1.267 tap=1
~ wdg=2 bus=66566050861620495BT.1.2.3.0 conn=wye kv=0.38 kva=225.0 %r=1.267 tap=1
New Transformer.34778765 Phases=3 Windings=2 xhl=4.318 %noloadloss=0.209
~ wdg=1 bus=65860678861453850ET.1.2.3 conn=delta kv=34.5 kva=225.0 %r=1.267 tap=1
~ wdg=2 bus=65860557861453938BT.1.2.3.0 conn=wye kv=0.38 kva=225.0 %r=1.267 tap=1
New Transformer.34793070 Phases=3 Windings=2 xhl=3.275 %noloadloss=0.121
~ wdg=1 bus=66486236861606587ET.1.2.3 conn=delta kv=34.5 kva=30.0 %r=2.033 tap=1
~ wdg=2 bus=66486198861606779BT.1.2.3.0 conn=wye kv=0.38 kva=30.0 %r=2.033 tap=1
New Transformer.71486531 Phases=3 Windings=2 xhl=3.275 %noloadloss=0.121
~ wdg=1 bus=67258501862479017MT.1.2.3 conn=delta kv=34.5 kva=750.0 %r=2.033 tap=1
~ wdg=2 bus=67258614862479127BT.1.2.3.0 conn=wye kv=0.22 kva=750.0 %r=2.033 tap=1
New Transformer.71542456 Phases=3 Windings=2 xhl=5.0 %noloadloss=0.5
~ wdg=1 bus=66570640861815499ET.1.2.3 conn=delta kv=34.5 kva=30.0 %r=4.0 tap=1
~ wdg=2 bus=66570765861815470BT.1.2.3.0 conn=wye kv=0.22 kva=30.0 %r=4.0 tap=1
New Transformer.71551749 Phases=3 Windings=2 xhl=5.0 %noloadloss=0.5
~ wdg=1 bus=68234806862225659MT.1.2.3 conn=delta kv=34.5 kva=500.0 %r=4.0 tap=1
~ wdg=2 bus=68234960862225712BT.1.2.3.0 conn=wye kv=0.22 kva=500.0 %r=4.0 tap=1
New Transformer.71551754 Phases=3 Windings=2 xhl=3.275 %noloadloss=0.121
~ wdg=1 bus=68172156862335601MT.1.2.3 conn=delta kv=34.5 kva=2000.0 %r=2.033 tap=1
~ wdg=2 bus=68172107862335735BT.1.2.3.0 conn=wye kv=0.22 kva=2000.0 %r=2.033 tap=1
New loadshape.myirrad_3150aba61c62dcf6f0e16c413dc88a7ac4d200e663de7e8cad8b7a633940b9ee npts = 1 interval = 1 mult = [1]
New tshape.mytemp_3150aba61c62dcf6f0e16c413dc88a7ac4d200e663de7e8cad8b7a633940b9ee npts = 1 interval = 1 temp = [25]
New xycurve.myeff_3150aba61c62dcf6f0e16c413dc88a7ac4d200e663de7e8cad8b7a633940b9ee npts = 4 xarray=[.1 .2 .4 1.0] yarray=[.86 .9 .93 .97]
New loadshape.myirrad_5aea3d3a5962c9124eded4f6d2fc04fc7c8b22abe58a73d6981661a9e9f63d6c npts = 1 interval = 1 mult = [1]
New xycurve.myeff_5aea3d3a5962c9124eded4f6d2fc04fc7c8b22abe58a73d6981661a9e9f63d6c npts = 4 xarray=[.1 .2 .4 1.0] yarray=[.86 .9 .93 .97]
New tshape.mytemp_5aea3d3a5962c9124eded4f6d2fc04fc7c8b22abe58a73d6981661a9e9f63d6c npts = 1 interval = 1 temp = [25]
New Load.nome_34682866_curva_diaria_RES-Tipo7_du_0.9_0.8_0.8_0.8_0.8_0.8_0.8_0.8_0.8_0.7_0.7_0.7_0.8_0.7_0.8_0.7_0.7_0.7_0.8_0.8_0.8_0.7_0.7_0.7_0.7_0.7_0.7_0.6_0.6_0.6_0.7_0.6_0.7_0.7_0.7_0.7_0.7_0.7_0.7_0.8_0.8_0.8_0.8_0.7_0.7_0.8_0.9_0.9_0.9_0.8_0.8_0.8_0.8_0.8_0.8_0.8_0.8_0.8_0.8_0.8_0.8_0.8_0.8_0.9_0.8_0.8_0.8_0.9_0.8_0.8_0.8_0.9_0.9_0.9_0.9_1.0_1.0_1.0_1.0_1.0_0.9_0.9_0.9_1.0_0.9_0.9_0.9_0.9_0.8_0.8_0.8_0.8_0.7_0.8_0.8_0.8_sa_0.8_0.7_0.7_0.7_0.6_0.6_0.7_0.7_0.7_0.7_0.7_0.7_0.6_0.6_0.6_0.6_0.7_0.7_0.6_0.6_0.7_0.6_0.6_0.6_0.5_0.6_0.6_0.6_0.6_0.6_0.7_0.7_0.7_0.7_0.7_0.9_0.8_0.7_0.7_0.7_0.6_0.7_0.6_0.7_0.7_0.7_0.8_0.8_0.7_0.7_0.8_0.7_0.8_0.8_0.6_0.7_0.7_0.7_0.7_0.7_0.7_0.7_0.7_0.8_0.8_0.8_0.8_0.8_0.8_0.7_0.8_1.0_0.8_0.8_0.8_0.9_0.9_0.9_0.8_0.9_0.9_0.9_0.9_1.0_1.0_0.8_0.8_0.8_0.8_0.8_0.8_0.8_0.8_0.8_0.8_0.7_do_0.8_0.8_0.7_0.8_0.7_0.7_0.7_0.7_0.8_0.7_0.7_0.8_0.8_0.8_0.7_0.7_0.7_0.7_0.8_0.8_0.7_0.7_0.7_0.7_0.6_0.7_0.7_0.7_0.7_0.7_0.7_0.7_0.7_0.6_0.7_0.7_0.7_0.6_0.6_0.7_0.7_0.7_0.7_0.7_0.7_0.7_0.7_0.8_0.7_0.7_0.7_0.7_0.7_0.8_0.8_0.8_0.8_0.8_0.8_0.8_0.7_0.7_0.8_0.8_0.8_0.7_0.7_0.7_0.7_0.7_0.7_0.7_0.8_0.8_0.9_0.8_0.8_0.8_0.8_0.8_0.8_0.8_0.8_0.8_0.9_0.8_0.7_0.8_0.8_1.0_0.8_0.8_0.7_0.7_0.8_0.7_curva_anual_0.00_0.00_0.00_0.00_0.00_0.00_0.00_0.00_1.47_0.00_0.00_0.00_carga_agregada Bus1=67115795861473050BT.1.2.3.0 Phases=3
~ Conn=wye Model=1 Kv=0.254 Kw=1 pf=0.92
New Load.nome_34634653_curva_diaria_RUR-Tipo2_du_0.6_0.5_0.6_0.5_0.5_0.5_0.5_0.5_0.5_0.5_0.6_0.5_0.5_0.5_0.6_0.5_0.5_0.5_0.5_0.6_0.5_0.5_0.6_0.5_0.5_0.5_0.5_0.5_0.5_0.5_0.5_0.5_0.5_0.5_0.5_0.5_0.5_0.5_0.5_0.5_0.5_0.5_0.5_0.6_0.6_0.6_0.5_0.6_0.6_0.5_0.5_0.5_0.6_0.6_0.5_0.6_0.6_0.6_0.6_0.6_0.6_0.6_0.6_0.7_0.7_0.7_0.7_0.7_0.7_0.7_0.7_0.8_0.8_0.9_1.0_0.9_0.9_0.9_0.9_0.8_0.8_0.8_0.8_0.8_0.7_0.7_0.8_0.7_0.7_0.7_0.6_0.6_0.6_0.6_0.6_0.6_sa_0.7_0.8_0.7_0.7_0.7_0.6_0.7_0.7_0.6_0.7_0.7_0.6_0.6_0.6_0.6_0.6_0.6_0.6_0.6_0.6_0.6_0.6_0.6_0.6_0.6_0.6_0.6_0.5_0.5_0.5_0.5_0.5_0.4_0.5_0.5_0.5_0.6_0.5_0.5_0.5_0.5_0.5_0.5_0.5_0.5_0.6_0.6_0.6_0.5_0.6_0.6_0.6_0.6_0.6_0.7_0.7_0.8_0.8_0.9_0.9_0.8_0.8_0.9_1.0_0.9_0.8_0.7_0.6_0.6_0.8_0.9_0.8_0.9_0.9_0.8_0.8_0.8_0.7_0.7_0.7_0.7_0.8_0.7_0.7_0.7_0.7_0.6_0.6_0.7_0.6_0.6_0.7_0.7_0.7_0.7_0.7_do_0.9_0.8_0.8_0.8_0.8_0.8_0.8_0.8_0.8_0.7_0.7_0.7_0.8_0.7_0.7_0.7_0.7_0.7_0.7_0.7_0.7_0.6_0.6_0.7_0.7_0.7_0.6_0.6_0.6_0.6_0.7_0.8_0.8_0.7_0.6_0.7_0.7_0.7_0.7_0.8_0.7_0.8_0.8_0.7_0.6_0.7_0.8_0.7_0.7_0.7_0.7_0.8_0.8_0.7_0.8_0.8_0.8_0.8_0.8_0.8_0.8_0.8_0.8_0.9_0.9_0.9_0.9_0.9_0.8_0.8_0.9_0.9_0.9_0.9_0.9_1.0_1.0_0.8_0.9_0.9_0.8_0.8_0.9_0.9_0.9_0.8_0.8_0.8_0.7_0.7_0.7_0.7_0.7_0.7_0.7_0.7_curva_anual_0.00_0.00_0.00_0.00_0.00_0.00_0.00_0.00_18.02_42.54_31.93_27.16_carga_agregada Bus1=67162881862291599BT.1.2.3.0 Phases=3
~ Conn=wye Model=1 Kv=0.22 Kw=1 pf=0.92
New Load.nome_34736295_curva_diaria_RES-Tipo3_du_0.8_0.7_0.8_0.8_0.7_0.7_0.7_0.7_0.7_0.6_0.7_0.7_0.6_0.7_0.6_0.6_0.6_0.6_0.6_0.6_0.6_0.6_0.6_0.5_0.5_0.4_0.4_0.5_0.4_0.4_0.4_0.4_0.3_0.5_0.3_0.3_0.3_0.3_0.3_0.3_0.3_0.2_0.3_0.4_0.4_0.4_0.4_0.3_0.4_0.4_0.4_0.3_0.5_0.4_0.4_0.4_0.4_0.4_0.4_0.4_0.4_0.4_0.5_0.5_0.4_0.4_0.4_0.4_0.4_0.5_0.4_0.5_0.6_0.6_0.7_0.8_0.9_0.8_1.0_0.9_0.9_0.9_0.9_0.9_0.8_0.8_0.8_0.7_0.7_0.7_0.7_0.7_0.7_0.7_0.7_0.7_sa_0.9_0.8_0.9_0.7_0.7_0.8_0.7_0.7_0.8_0.8_0.8_0.8_0.7_0.7_0.7_0.7_0.6_0.7_0.7_0.6_0.7_0.7_0.7_0.6_0.6_0.6_0.6_0.6_0.8_0.5_0.4_0.5_0.5_0.5_0.5_0.5_0.5_0.5_0.5_0.5_0.5_0.5_0.4_0.5_0.4_0.5_0.5_0.5_0.5_0.5_0.7_0.6_0.6_0.7_0.7_0.7_0.7_0.8_0.7_0.8_0.6_0.6_0.7_0.6_0.6_0.7_0.7_0.6_0.7_0.7_0.7_0.6_0.6_0.7_0.8_0.8_0.8_0.8_0.8_0.9_0.8_0.9_0.8_0.9_0.9_0.8_0.8_0.8_0.7_0.9_0.8_0.9_0.9_1.0_1.0_0.9_do_0.9_0.9_0.8_0.8_0.8_0.9_0.8_0.9_0.8_0.8_0.8_0.8_0.7_0.7_0.8_0.7_0.7_0.7_0.7_0.7_0.7_0.7_0.8_0.7_0.6_0.6_0.6_0.6_0.6_0.6_0.6_0.6_0.7_0.6_0.6_0.5_0.5_0.5_0.5_0.5_0.6_0.7_0.6_0.6_0.5_0.5_0.4_0.5_0.5_0.6_0.6_0.7_0.7_0.7_0.8_0.8_0.8_0.9_0.9_1.0_0.9_0.8_0.8_0.8_0.8_0.9_0.7_0.6_0.5_0.6_0.7_0.6_0.6_0.7_0.6_0.5_0.5_0.6_0.6_0.8_0.7_0.8_0.7_0.7_0.8_0.8_0.8_0.8_0.9_0.9_0.9_0.9_0.9_0.8_0.9_0.8_curva_anual_0.00_0.00_0.00_0.00_0.00_0.00_0.00_0.00_7.78_14.41_32.77_5.30_carga_agregada Bus1=67346501861675358BT.1.2.3.0 Phases=3
~ Conn=wye Model=1 Kv=0.254 Kw=1 pf=0.92
...